**
** Heading +++++++++++++++++++++++++++++++++++++++++++++++++
**
*Heading
Hash: ZlubEQWP, Date: 02/16/2025, Unit system: MM_TON_S_C
**
** Nodes +++++++++++++++++++++++++++++++++++++++++++++++++++
**
*Node
1, 3.00000000E-016, 0.00000000E+000, -5.00000000E+000
2, 3.00000000E-016, 0.00000000E+000, 5.00000000E+000
3, 9.83153473E-001, 0.00000000E+000, -4.90238812E+000
4, 1.92791996E+000, 0.00000000E+000, -4.61336370E+000
5, 2.78437808E+000, 0.00000000E+000, -4.15297950E+000
6, 3.54662365E+000, 0.00000000E+000, -3.52440927E+000
7, 4.16170637E+000, 0.00000000E+000, -2.77131739E+000
8, 4.61939766E+000, 0.00000000E+000, -1.91341716E+000
9, 4.90545259E+000, 0.00000000E+000, -9.67747340E-001
10, 5.00000000E+000, 0.00000000E+000, 0.00000000E+000
11, 4.90238812E+000, 0.00000000E+000, 9.83153473E-001
12, 4.61336370E+000, 0.00000000E+000, 1.92791996E+000
13, 4.15297950E+000, 0.00000000E+000, 2.78437808E+000
14, 3.52440927E+000, 0.00000000E+000, 3.54662365E+000
15, 2.77131739E+000, 0.00000000E+000, 4.16170637E+000
16, 1.89889548E+000, 0.00000000E+000, 4.62538603E+000
17, 9.67747340E-001, 0.00000000E+000, 4.90545259E+000
18, 4.66537557E-001, 9.11529899E-001, -4.89402247E+000
19, 1.44991239E+000, 8.85172799E-001, -4.70257623E+000
20, 2.36355305E+000, 8.81674704E-001, -4.31697425E+000
** ... 6488 like lines cut
**
** Elements ++++++++++++++++++++++++++++++++++++++++++++++++
**
*Element, Type=C3D4, Elset=Solid_part-2
1, 382, 381, 476, 475
2, 411, 404, 416, 485
3, 461, 463, 145, 186
4, 276, 424, 295, 431
5, 406, 411, 253, 296
6, 125, 91, 403, 376
7, 46, 386, 387, 10
8, 461, 186, 145, 162
9, 450, 492, 341, 457
10, 471, 469, 485, 384
11, 438, 487, 425, 426
12, 125, 376, 410, 185
13, 8, 37, 386, 382
14, 426, 304, 305, 487
15, 378, 18, 481, 373
16, 461, 162, 145, 398
17, 385, 382, 381, 477
18, 435, 456, 432, 490
19, 463, 157, 226, 467
20, 420, 329, 302, 328
** ... 1639 like lines cut
*Element, Type=C3D4, Elset=Solid_part-1
1660, 3695, 565, 566, 515
1661, 3075, 5913, 5782, 5739
1662, 3316, 6136, 3380, 6138
1663, 2941, 3006, 2837, 5668
1664, 2941, 5567, 5566, 5667
1665, 6136, 3316, 3380, 3318
1666, 2764, 2870, 5649, 5746
1667, 4816, 4714, 2007, 4970
1668, 3937, 4140, 4213, 1334
1669, 2386, 5429, 2385, 2252
1670, 2656, 5541, 5542, 5679
1671, 770, 721, 944, 3740
1672, 2870, 5746, 5753, 5649
1673, 2764, 5746, 5649, 5679
1674, 3452, 6289, 6218, 3394
1675, 2474, 2338, 2444, 5061
1676, 5522, 5627, 2816, 2845
1677, 3329, 3328, 6224, 3394
1678, 6307, 3395, 3454, 3396
1679, 4097, 4096, 3910, 1261
** ... 17407 like lines cut
**
** Node sets +++++++++++++++++++++++++++++++++++++++++++++++
**
*Nset, Nset=Internal_Selection-1_Rigid_Body-1
495, 496, 497, 498, 499, 500, 501, 502, 503, 504, 505, 506, 507, 508, 509, 510, 
511, 512, 513, 514, 515, 516, 517, 518, 519, 520, 521, 522, 523, 524, 525, 526, 
527, 528, 529, 530, 531, 532, 533, 534, 535, 536, 537, 538, 539, 540, 541, 542, 
543, 544, 545, 546, 547, 548, 549, 550, 551, 552, 553, 554, 555, 556, 557, 558, 
559, 560, 561, 562, 563, 564, 565, 566, 567, 568, 569, 570, 571, 572, 573, 574, 
575, 576, 577, 578, 579, 580, 581, 582, 583, 584, 585, 586, 587, 588, 589, 590, 
591, 592, 593, 594, 595, 596, 597, 598, 599, 600, 601, 602, 603, 604, 605, 606, 
607, 608, 609, 610, 611, 612, 613, 614, 615, 616, 617, 618, 619, 620, 621, 622, 
623, 624, 625, 626, 627, 628, 629, 630, 631, 632, 633, 634, 635, 636, 637, 638, 
639, 640, 641, 642, 643, 644, 645, 646, 647, 648, 649, 650, 651, 652, 653, 654, 
655, 656, 657, 658, 659, 660, 661, 662, 663, 664, 665, 666, 667, 668, 669, 670, 
671, 672, 673, 674, 675, 676, 677, 678, 679, 680, 681, 682, 683, 684, 685, 686, 
687, 688, 689, 690, 691, 692, 693, 694, 695, 696, 697, 698, 699, 700, 701, 702, 
703, 704, 705, 706, 707, 708, 709, 710, 711, 712, 713, 714, 715, 716, 717, 718, 
719, 720, 721, 722, 723, 724, 725, 726, 727, 728, 729, 730, 731, 732, 733, 734, 
735, 736, 737, 738, 739, 740, 741, 742, 743, 744, 745, 746, 747, 748, 749, 750, 
751, 752, 753, 754, 755, 756, 757, 758, 759, 760, 761, 762, 763, 764, 765, 766, 
767, 768, 769, 770, 771, 772, 773, 774, 775, 776, 777, 778, 779, 780, 781, 782, 
783, 784, 785, 786, 787, 788, 789, 790, 791, 792, 793, 794, 795, 796, 797, 798, 
799, 800, 801, 802, 803, 804, 805, 806, 807, 808, 809, 810, 811, 812, 813, 814, 
** ... 6 like lines cut
*Nset, Nset=Internal-1_Internal_Selection-1_Contact_Pair-1_Master
1, 2, 3, 4, 5, 6, 7, 8, 9, 10, 11, 12, 13, 14, 15, 16, 
17, 18, 19, 20, 21, 22, 23, 24, 25, 26, 27, 28, 29, 30, 31, 32, 
33, 34, 35, 36, 37, 38, 39, 40, 41, 42, 43, 44, 45, 46, 47, 48, 
49, 50, 51, 52, 53, 54, 55, 56, 57, 58, 59, 60, 61, 62, 63, 64, 
65, 66, 67, 68, 69, 70, 71, 72, 73, 74, 75, 76, 77, 78, 79, 80, 
81, 82, 83, 84, 85, 86, 87, 88, 89, 90, 91, 92, 93, 94, 95, 96, 
97, 98, 99, 100, 101, 102, 103, 104, 105, 106, 107, 108, 109, 110, 111, 112, 
113, 114, 115, 116, 117, 118, 119, 120, 121, 122, 123, 124, 125, 126, 127, 128, 
129, 130, 131, 132, 133, 134, 135, 136, 137, 138, 139, 140, 141, 142, 143, 144, 
145, 146, 147, 148, 149, 150, 151, 152, 153, 154, 155, 156, 157, 158, 159, 160, 
161, 162, 163, 164, 165, 166, 167, 168, 169, 170, 171, 172, 173, 174, 175, 176, 
177, 178, 179, 180, 181, 182, 183, 184, 185, 186, 187, 188, 189, 190, 191, 192, 
193, 194, 195, 196, 197, 198, 199, 200, 201, 202, 203, 204, 205, 206, 207, 208, 
209, 210, 211, 212, 213, 214, 215, 216, 217, 218, 219, 220, 221, 222, 223, 224, 
225, 226, 227, 228, 229, 230, 231, 232, 233, 234, 235, 236, 237, 238, 239, 240, 
241, 242, 243, 244, 245, 246, 247, 248, 249, 250, 251, 252, 253, 254, 255, 256, 
257, 258, 259, 260, 261, 262, 263, 264, 265, 266, 267, 268, 269, 270, 271, 272, 
273, 274, 275, 276, 277, 278, 279, 280, 281, 282, 283, 284, 285, 286, 287, 288, 
289, 290, 291, 292, 293, 294, 295, 296, 297, 298, 299, 300, 301, 302, 303, 304, 
305, 306, 307, 308, 309, 310, 311, 312, 313, 314, 315, 316, 317, 318, 319, 320, 
** ... 4 like lines cut
*Nset, Nset=Internal-1_Internal_Selection-1_Contact_Pair-1_Slave
495, 496, 497, 498, 499, 500, 501, 502, 503, 504, 505, 506, 507, 508, 509, 510, 
511, 512, 513, 514, 515, 516, 517, 518, 519, 520, 521, 522, 523, 524, 525, 526, 
527, 528, 529, 530, 531, 532, 533, 534, 535, 536, 537, 538, 539, 540, 541, 542, 
543, 544, 545, 546, 547, 548, 549, 550, 551, 552, 553, 554, 555, 556, 557, 558, 
559, 560, 561, 562, 563, 564, 565, 566, 567, 568, 569, 570, 571, 572, 573, 574, 
575, 576, 577, 578, 579, 580, 581, 582, 583, 584, 585, 586, 587, 588, 589, 590, 
591, 592, 593, 594, 595, 596, 597, 598, 599, 600, 601, 602, 603, 604, 605, 606, 
607, 608, 609, 610, 611, 612, 613, 614, 615, 616, 617, 618, 619, 620, 621, 622, 
623, 624, 625, 626, 627, 628, 629, 630, 631, 632, 633, 634, 635, 636, 637, 638, 
639, 640, 641, 642, 643, 644, 645, 646, 647, 648, 649, 650, 651, 652, 653, 654, 
655, 656, 657, 658, 659, 660, 661, 662, 663, 664, 665, 666, 667, 668, 669, 670, 
671, 672, 673, 674, 675, 676, 677, 678, 679, 680, 681, 682, 683, 684, 685, 686, 
687, 688, 689, 690, 691, 692, 693, 694, 695, 696, 697, 698, 699, 700, 701, 702, 
703, 704, 705, 706, 707, 708, 709, 710, 711, 712, 713, 714, 715, 716, 717, 718, 
719, 720, 721, 722, 723, 724, 725, 726, 727, 728, 729, 730, 731, 732, 733, 734, 
735, 736, 737, 738, 739, 740, 741, 742, 743, 744, 745, 746, 747, 748, 749, 750, 
751, 752, 753, 754, 755, 756, 757, 758, 759, 760, 761, 762, 763, 764, 765, 766, 
767, 768, 769, 770, 771, 772, 773, 774, 775, 776, 777, 778, 779, 780, 781, 782, 
783, 784, 785, 786, 787, 788, 789, 790, 791, 792, 793, 794, 795, 796, 797, 798, 
799, 800, 801, 802, 803, 804, 805, 806, 807, 808, 809, 810, 811, 812, 813, 814, 
** ... 356 like lines cut
*Nset, Nset=Reference_Point-1_ref_6507
6507
*Nset, Nset=Reference_Point-1_rot_6508
6508
*Nset, Nset=Solid_part-2_fromEl
1, 2, 3, 4, 5, 6, 7, 8, 9, 10, 11, 12, 13, 14, 15, 16, 
17, 18, 19, 20, 21, 22, 23, 24, 25, 26, 27, 28, 29, 30, 31, 32, 
33, 34, 35, 36, 37, 38, 39, 40, 41, 42, 43, 44, 45, 46, 47, 48, 
49, 50, 51, 52, 53, 54, 55, 56, 57, 58, 59, 60, 61, 62, 63, 64, 
65, 66, 67, 68, 69, 70, 71, 72, 73, 74, 75, 76, 77, 78, 79, 80, 
81, 82, 83, 84, 85, 86, 87, 88, 89, 90, 91, 92, 93, 94, 95, 96, 
97, 98, 99, 100, 101, 102, 103, 104, 105, 106, 107, 108, 109, 110, 111, 112, 
113, 114, 115, 116, 117, 118, 119, 120, 121, 122, 123, 124, 125, 126, 127, 128, 
129, 130, 131, 132, 133, 134, 135, 136, 137, 138, 139, 140, 141, 142, 143, 144, 
145, 146, 147, 148, 149, 150, 151, 152, 153, 154, 155, 156, 157, 158, 159, 160, 
161, 162, 163, 164, 165, 166, 167, 168, 169, 170, 171, 172, 173, 174, 175, 176, 
177, 178, 179, 180, 181, 182, 183, 184, 185, 186, 187, 188, 189, 190, 191, 192, 
193, 194, 195, 196, 197, 198, 199, 200, 201, 202, 203, 204, 205, 206, 207, 208, 
209, 210, 211, 212, 213, 214, 215, 216, 217, 218, 219, 220, 221, 222, 223, 224, 
225, 226, 227, 228, 229, 230, 231, 232, 233, 234, 235, 236, 237, 238, 239, 240, 
241, 242, 243, 244, 245, 246, 247, 248, 249, 250, 251, 252, 253, 254, 255, 256, 
257, 258, 259, 260, 261, 262, 263, 264, 265, 266, 267, 268, 269, 270, 271, 272, 
273, 274, 275, 276, 277, 278, 279, 280, 281, 282, 283, 284, 285, 286, 287, 288, 
289, 290, 291, 292, 293, 294, 295, 296, 297, 298, 299, 300, 301, 302, 303, 304, 
305, 306, 307, 308, 309, 310, 311, 312, 313, 314, 315, 316, 317, 318, 319, 320, 
** ... 11 like lines cut
**
** Element sets ++++++++++++++++++++++++++++++++++++++++++++
**
*Elset, Elset=Internal-1_Internal_Selection-1_Contact_Pair-1_Master_S3
8, 20, 24, 28, 30, 60, 69, 77, 86, 88, 93, 108, 117, 131, 150, 156, 
169, 199, 204, 213, 225, 233, 243, 245, 253, 262, 267, 278, 279, 291, 294, 297, 
314, 321, 331, 333, 335, 350, 375, 380, 420, 422, 425, 434, 445, 448, 450, 455, 
456, 465, 493, 497, 502, 503, 531, 532, 537, 551, 554, 575, 599, 607, 609, 616, 
617, 620, 621, 624, 626, 682, 685, 693, 700, 701, 709, 734, 739, 744, 754, 756, 
760, 791, 798, 816, 822, 838, 844, 846, 847, 865, 873, 892, 898, 903, 910, 917, 
918, 923, 924, 926, 935, 936, 939, 955, 962, 966, 969, 970, 971, 983, 986, 987, 
999, 1000, 1002, 1011, 1013, 1018, 1025, 1029, 1030, 1034, 1039, 1048, 1052, 1054, 1055, 1057, 
1067, 1069, 1071, 1073, 1076, 1078, 1088, 1092, 1093, 1094, 1104, 1138, 1155, 1167, 1168, 1184, 
1186, 1187, 1190, 1198, 1203, 1209, 1229, 1230, 1231, 1250, 1252, 1258, 1271, 1288, 1292, 1295, 
1299, 1301, 1311, 1324, 1332, 1333, 1335, 1336, 1339, 1340, 1342, 1368, 1384, 1388, 1403, 1424, 
1425, 1431, 1437, 1441, 1445, 1450, 1460, 1461, 1466, 1471, 1484, 1489, 1493, 1494, 1508, 1530, 
1532, 1540, 1549, 1567, 1575, 1585, 1613, 1634, 1635
*Elset, Elset=Internal-1_Internal_Selection-1_Contact_Pair-1_Master_S2
21, 26, 34, 36, 40, 48, 52, 59, 65, 67, 97, 99, 116, 118, 121, 128, 
170, 175, 188, 196, 197, 201, 205, 216, 226, 236, 244, 249, 261, 269, 319, 348, 
351, 368, 379, 383, 388, 401, 406, 408, 421, 427, 440, 449, 471, 487, 489, 500, 
512, 524, 536, 546, 553, 557, 558, 561, 569, 574, 581, 600, 602, 604, 638, 645, 
656, 664, 665, 690, 697, 698, 717, 723, 728, 732, 757, 780, 793, 794, 795, 811, 
813, 818, 833, 841, 852, 855, 859, 862, 880, 883, 888, 913, 914, 925, 929, 934, 
937, 943, 946, 951, 953, 958, 963, 964, 967, 972, 976, 977, 989, 994, 1005, 1016, 
1047, 1049, 1061, 1063, 1074, 1081, 1085, 1086, 1087, 1090, 1100, 1106, 1120, 1124, 1125, 1129, 
1143, 1157, 1171, 1193, 1200, 1202, 1205, 1226, 1235, 1243, 1248, 1255, 1261, 1270, 1273, 1283, 
1287, 1300, 1325, 1326, 1330, 1337, 1341, 1343, 1357, 1358, 1361, 1371, 1373, 1412, 1414, 1415, 
1422, 1432, 1439, 1446, 1448, 1462, 1469, 1490, 1497, 1498, 1499, 1504, 1507, 1519, 1521, 1524, 
1527, 1538, 1543, 1556, 1562, 1564, 1578, 1586, 1587, 1605, 1614, 1617, 1621, 1637, 1640
*Elset, Elset=Internal-1_Internal_Selection-1_Contact_Pair-1_Master_S4
31, 51, 54, 66, 80, 90, 94, 111, 124, 137, 141, 147, 153, 163, 167, 168, 
171, 173, 183, 184, 187, 203, 206, 208, 222, 223, 235, 256, 259, 271, 281, 283, 
302, 303, 323, 334, 344, 359, 381, 385, 392, 396, 416, 433, 437, 441, 478, 494, 
509, 514, 540, 541, 550, 570, 572, 573, 580, 582, 591, 597, 601, 606, 618, 629, 
631, 635, 641, 643, 648, 663, 666, 670, 694, 702, 705, 714, 716, 718, 719, 720, 
724, 727, 737, 767, 772, 773, 779, 788, 790, 806, 817, 826, 839, 854, 863, 881, 
891, 915, 919, 922, 930, 938, 942, 952, 960, 961, 984, 991, 1001, 1003, 1014, 1022, 
1023, 1028, 1033, 1037, 1040, 1053, 1058, 1064, 1066, 1077, 1080, 1091, 1101, 1110, 1128, 1136, 
1150, 1159, 1197, 1213, 1216, 1222, 1234, 1253, 1262, 1263, 1269, 1272, 1305, 1312, 1315, 1320, 
1345, 1347, 1372, 1421, 1428, 1430, 1438, 1444, 1452, 1459, 1463, 1482, 1485, 1500, 1529, 1534, 
1535, 1541, 1547, 1568, 1572, 1590, 1592, 1606, 1610, 1611, 1626, 1641, 1653
*Elset, Elset=Internal-1_Internal_Selection-1_Contact_Pair-1_Master_S1
38, 39, 42, 44, 45, 47, 64, 68, 71, 82, 95, 106, 114, 115, 134, 144, 
146, 155, 157, 158, 202, 207, 237, 239, 241, 248, 252, 266, 275, 300, 315, 318, 
322, 326, 328, 339, 353, 356, 364, 366, 367, 382, 399, 402, 412, 415, 429, 438, 
460, 463, 464, 466, 479, 517, 526, 533, 566, 567, 571, 577, 578, 592, 596, 623, 
630, 639, 646, 652, 657, 680, 686, 708, 710, 715, 726, 729, 740, 741, 746, 759, 
761, 762, 764, 770, 774, 782, 783, 789, 802, 805, 810, 831, 850, 853, 861, 902, 
906, 907, 909, 928, 941, 948, 959, 978, 992, 1007, 1068, 1070, 1113, 1123, 1147, 1151, 
1156, 1165, 1170, 1181, 1185, 1191, 1194, 1208, 1215, 1217, 1220, 1237, 1247, 1249, 1254, 1264, 
1266, 1267, 1275, 1277, 1279, 1285, 1297, 1304, 1307, 1310, 1313, 1321, 1356, 1393, 1397, 1413, 
1417, 1429, 1442, 1464, 1467, 1470, 1479, 1480, 1491, 1496, 1501, 1510, 1523, 1528, 1531, 1555, 
1569, 1571, 1573, 1589, 1598, 1603, 1633, 1646, 1655, 1656, 1658
*Elset, Elset=Internal-1_Internal_Selection-1_Contact_Pair-1_Slave_S1
1660, 1663, 1668, 1675, 1679, 1702, 1720, 1728, 1734, 1742, 1743, 1754, 1773, 1777, 1783, 1784, 
1813, 1822, 1837, 1840, 1842, 1846, 1861, 1866, 1868, 1870, 1875, 1876, 1880, 1881, 1892, 1893, 
1901, 1902, 1905, 1909, 1913, 1915, 1917, 1928, 1929, 1940, 1942, 1947, 1959, 1971, 1973, 1976, 
1990, 1994, 1995, 1997, 2011, 2016, 2021, 2026, 2036, 2059, 2086, 2096, 2097, 2099, 2105, 2125, 
2134, 2136, 2157, 2164, 2166, 2167, 2178, 2200, 2203, 2209, 2211, 2218, 2221, 2222, 2225, 2229, 
2231, 2232, 2239, 2243, 2244, 2245, 2254, 2260, 2274, 2279, 2294, 2296, 2300, 2306, 2308, 2309, 
2314, 2319, 2332, 2339, 2347, 2351, 2365, 2388, 2390, 2394, 2397, 2404, 2427, 2433, 2443, 2448, 
2454, 2458, 2472, 2474, 2478, 2492, 2515, 2523, 2528, 2537, 2538, 2542, 2544, 2556, 2560, 2565, 
2586, 2587, 2588, 2595, 2603, 2615, 2626, 2627, 2636, 2649, 2653, 2656, 2657, 2676, 2678, 2683, 
2686, 2690, 2715, 2717, 2723, 2726, 2728, 2741, 2753, 2754, 2760, 2763, 2764, 2770, 2771, 2773, 
2777, 2781, 2784, 2786, 2798, 2801, 2809, 2813, 2825, 2830, 2834, 2840, 2841, 2842, 2843, 2845, 
2851, 2852, 2854, 2858, 2860, 2861, 2866, 2874, 2875, 2878, 2882, 2883, 2891, 2906, 2910, 2915, 
2922, 2923, 2925, 2931, 2932, 2937, 2942, 2945, 2947, 2950, 2951, 2961, 2971, 2984, 2998, 3000, 
3004, 3005, 3037, 3046, 3055, 3057, 3058, 3065, 3070, 3078, 3082, 3087, 3091, 3098, 3101, 3102, 
3116, 3119, 3123, 3130, 3137, 3149, 3155, 3159, 3160, 3163, 3165, 3168, 3169, 3177, 3183, 3191, 
3199, 3202, 3221, 3235, 3236, 3240, 3244, 3251, 3255, 3258, 3268, 3271, 3277, 3279, 3280, 3283, 
3288, 3296, 3302, 3317, 3319, 3332, 3338, 3340, 3357, 3358, 3376, 3377, 3389, 3401, 3405, 3422, 
3425, 3426, 3432, 3455, 3460, 3465, 3474, 3493, 3500, 3504, 3513, 3520, 3526, 3530, 3542, 3557, 
3561, 3572, 3573, 3589, 3597, 3603, 3615, 3616, 3618, 3628, 3632, 3633, 3634, 3636, 3646, 3653, 
3654, 3669, 3672, 3676, 3677, 3682, 3684, 3686, 3688, 3696, 3708, 3711, 3717, 3724, 3726, 3728, 
** ... 159 like lines cut
*Elset, Elset=Internal-1_Internal_Selection-1_Contact_Pair-1_Slave_S3
1660, 1661, 1664, 1665, 1670, 1672, 1673, 1678, 1686, 1688, 1695, 1699, 1700, 1715, 1717, 1735, 
1737, 1738, 1749, 1750, 1752, 1756, 1757, 1775, 1786, 1787, 1798, 1803, 1811, 1814, 1816, 1817, 
1820, 1839, 1845, 1847, 1851, 1852, 1853, 1859, 1862, 1871, 1878, 1879, 1885, 1889, 1900, 1903, 
1908, 1911, 1914, 1918, 1925, 1927, 1933, 1935, 1938, 1943, 1948, 1954, 1958, 1960, 1964, 1967, 
1972, 1980, 1986, 1988, 1989, 2000, 2004, 2006, 2013, 2014, 2019, 2024, 2027, 2030, 2038, 2039, 
2041, 2044, 2047, 2051, 2052, 2053, 2054, 2055, 2056, 2063, 2067, 2084, 2091, 2102, 2103, 2109, 
2112, 2116, 2117, 2118, 2127, 2137, 2147, 2150, 2151, 2155, 2177, 2186, 2193, 2195, 2197, 2206, 
2208, 2210, 2213, 2223, 2227, 2228, 2240, 2262, 2275, 2276, 2284, 2285, 2287, 2301, 2302, 2311, 
2316, 2318, 2323, 2327, 2345, 2355, 2364, 2370, 2377, 2392, 2395, 2401, 2405, 2406, 2408, 2409, 
2413, 2414, 2418, 2419, 2421, 2425, 2426, 2436, 2437, 2438, 2456, 2481, 2485, 2489, 2502, 2504, 
2505, 2507, 2516, 2517, 2518, 2522, 2523, 2540, 2559, 2568, 2570, 2582, 2585, 2602, 2608, 2611, 
2629, 2631, 2650, 2659, 2661, 2665, 2669, 2671, 2681, 2682, 2696, 2697, 2701, 2702, 2708, 2709, 
2719, 2730, 2733, 2734, 2736, 2739, 2745, 2748, 2749, 2755, 2756, 2758, 2759, 2767, 2782, 2789, 
2796, 2810, 2817, 2818, 2821, 2827, 2828, 2830, 2833, 2838, 2845, 2847, 2849, 2857, 2865, 2867, 
2871, 2876, 2893, 2900, 2908, 2910, 2928, 2933, 2936, 2938, 2946, 2949, 2953, 2974, 2976, 2980, 
2994, 3003, 3010, 3012, 3017, 3019, 3020, 3026, 3034, 3043, 3049, 3055, 3072, 3076, 3083, 3099, 
3119, 3125, 3126, 3128, 3129, 3131, 3139, 3147, 3150, 3152, 3157, 3162, 3164, 3167, 3173, 3175, 
3181, 3182, 3188, 3195, 3197, 3198, 3201, 3205, 3206, 3208, 3210, 3211, 3214, 3220, 3224, 3225, 
3228, 3229, 3234, 3243, 3256, 3257, 3260, 3263, 3267, 3269, 3270, 3278, 3281, 3282, 3294, 3296, 
3313, 3314, 3321, 3326, 3327, 3337, 3342, 3354, 3356, 3359, 3366, 3369, 3375, 3384, 3388, 3393, 
** ... 171 like lines cut
*Elset, Elset=Internal-1_Internal_Selection-1_Contact_Pair-1_Slave_S2
1667, 1677, 1681, 1683, 1684, 1691, 1692, 1703, 1706, 1708, 1709, 1710, 1714, 1722, 1726, 1729, 
1732, 1733, 1744, 1751, 1759, 1760, 1768, 1770, 1772, 1774, 1788, 1789, 1792, 1794, 1795, 1797, 
1800, 1806, 1809, 1810, 1823, 1825, 1835, 1836, 1838, 1844, 1860, 1863, 1864, 1865, 1874, 1884, 
1886, 1887, 1891, 1907, 1912, 1916, 1919, 1926, 1930, 1931, 1946, 1951, 1956, 1961, 1966, 1969, 
1970, 1977, 1985, 1987, 1992, 1998, 2003, 2005, 2011, 2017, 2022, 2023, 2029, 2030, 2032, 2040, 
2042, 2048, 2071, 2074, 2075, 2076, 2082, 2087, 2088, 2090, 2092, 2095, 2104, 2108, 2110, 2115, 
2121, 2123, 2129, 2130, 2133, 2141, 2142, 2148, 2161, 2165, 2176, 2181, 2188, 2201, 2202, 2207, 
2224, 2233, 2237, 2247, 2250, 2256, 2258, 2259, 2261, 2266, 2268, 2271, 2283, 2286, 2288, 2289, 
2307, 2310, 2321, 2330, 2331, 2334, 2335, 2341, 2344, 2357, 2360, 2366, 2368, 2371, 2373, 2379, 
2380, 2389, 2407, 2412, 2416, 2417, 2420, 2423, 2428, 2429, 2434, 2445, 2453, 2457, 2464, 2466, 
2467, 2476, 2477, 2482, 2484, 2486, 2488, 2491, 2498, 2501, 2520, 2524, 2525, 2532, 2534, 2539, 
2547, 2548, 2553, 2554, 2557, 2558, 2571, 2572, 2580, 2590, 2593, 2604, 2610, 2613, 2616, 2619, 
2621, 2624, 2634, 2635, 2637, 2642, 2643, 2647, 2662, 2664, 2666, 2667, 2689, 2693, 2703, 2705, 
2707, 2711, 2713, 2714, 2717, 2720, 2725, 2729, 2731, 2740, 2746, 2751, 2764, 2775, 2785, 2799, 
2805, 2808, 2814, 2826, 2830, 2848, 2853, 2859, 2869, 2870, 2886, 2888, 2890, 2891, 2894, 2897, 
2904, 2914, 2916, 2917, 2919, 2920, 2925, 2939, 2943, 2945, 2959, 2963, 2964, 2969, 2977, 2981, 
2988, 2998, 2999, 3005, 3014, 3015, 3024, 3025, 3027, 3030, 3038, 3039, 3040, 3044, 3045, 3048, 
3051, 3055, 3056, 3059, 3060, 3061, 3062, 3068, 3069, 3073, 3084, 3089, 3092, 3093, 3094, 3100, 
3102, 3106, 3107, 3110, 3114, 3118, 3123, 3140, 3142, 3143, 3144, 3146, 3151, 3165, 3170, 3179, 
3194, 3196, 3207, 3216, 3218, 3226, 3242, 3252, 3259, 3264, 3273, 3274, 3275, 3276, 3279, 3287, 
** ... 183 like lines cut
*Elset, Elset=Internal-1_Internal_Selection-1_Contact_Pair-1_Slave_S4
1669, 1682, 1687, 1689, 1697, 1698, 1700, 1707, 1711, 1723, 1725, 1727, 1734, 1739, 1740, 1746, 
1747, 1755, 1764, 1767, 1769, 1782, 1783, 1799, 1807, 1812, 1819, 1821, 1824, 1826, 1833, 1849, 
1855, 1856, 1858, 1867, 1869, 1883, 1904, 1921, 1923, 1932, 1936, 1937, 1939, 1941, 1944, 1949, 
1955, 1957, 1968, 1981, 1996, 2007, 2008, 2009, 2012, 2020, 2031, 2035, 2037, 2058, 2063, 2065, 
2066, 2069, 2070, 2077, 2078, 2098, 2106, 2111, 2113, 2120, 2126, 2128, 2138, 2146, 2152, 2153, 
2158, 2159, 2170, 2171, 2180, 2189, 2198, 2204, 2205, 2214, 2215, 2217, 2219, 2236, 2241, 2246, 
2250, 2251, 2252, 2270, 2272, 2273, 2278, 2280, 2282, 2291, 2292, 2304, 2313, 2316, 2322, 2336, 
2338, 2343, 2346, 2348, 2349, 2356, 2363, 2374, 2378, 2381, 2383, 2386, 2387, 2402, 2410, 2425, 
2430, 2447, 2455, 2461, 2462, 2475, 2483, 2493, 2499, 2500, 2503, 2510, 2521, 2526, 2531, 2533, 
2535, 2536, 2541, 2546, 2551, 2555, 2562, 2569, 2577, 2578, 2584, 2599, 2607, 2609, 2614, 2617, 
2673, 2674, 2685, 2691, 2692, 2699, 2716, 2729, 2735, 2737, 2744, 2752, 2755, 2766, 2772, 2778, 
2779, 2790, 2794, 2795, 2803, 2812, 2819, 2822, 2823, 2840, 2848, 2850, 2864, 2877, 2878, 2885, 
2895, 2898, 2907, 2913, 2918, 2926, 2934, 2940, 2954, 2957, 2962, 2966, 2970, 2985, 2991, 3002, 
3005, 3007, 3011, 3013, 3018, 3031, 3032, 3033, 3036, 3047, 3057, 3063, 3064, 3067, 3074, 3084, 
3085, 3086, 3095, 3109, 3110, 3111, 3118, 3122, 3134, 3138, 3150, 3154, 3156, 3166, 3176, 3189, 
3190, 3209, 3212, 3217, 3219, 3222, 3229, 3241, 3246, 3249, 3250, 3261, 3262, 3286, 3290, 3293, 
3303, 3306, 3311, 3312, 3316, 3322, 3324, 3325, 3331, 3346, 3351, 3360, 3365, 3372, 3373, 3374, 
3379, 3395, 3403, 3407, 3408, 3418, 3419, 3441, 3445, 3447, 3457, 3462, 3463, 3466, 3471, 3475, 
3488, 3494, 3496, 3498, 3499, 3512, 3515, 3516, 3518, 3524, 3533, 3538, 3539, 3551, 3556, 3575, 
3579, 3588, 3592, 3601, 3610, 3616, 3620, 3625, 3639, 3641, 3655, 3657, 3661, 3662, 3674, 3679, 
** ... 159 like lines cut
**
** Surfaces ++++++++++++++++++++++++++++++++++++++++++++++++
**
*Surface, Name=Internal_Selection-1_Contact_Pair-1_Master, Type=Element
Internal-1_Internal_Selection-1_Contact_Pair-1_Master_S3, S3
Internal-1_Internal_Selection-1_Contact_Pair-1_Master_S2, S2
Internal-1_Internal_Selection-1_Contact_Pair-1_Master_S4, S4
Internal-1_Internal_Selection-1_Contact_Pair-1_Master_S1, S1
*Surface, Name=Internal_Selection-1_Contact_Pair-1_Slave, Type=Element
Internal-1_Internal_Selection-1_Contact_Pair-1_Slave_S1, S1
Internal-1_Internal_Selection-1_Contact_Pair-1_Slave_S3, S3
Internal-1_Internal_Selection-1_Contact_Pair-1_Slave_S2, S2
Internal-1_Internal_Selection-1_Contact_Pair-1_Slave_S4, S4
**
** Physical constants ++++++++++++++++++++++++++++++++++++++
**
**
** Materials +++++++++++++++++++++++++++++++++++++++++++++++
**
*Material, Name=S235
*Density
7.8E-09
*Elastic
210000, 0.28
*Expansion, Zero=20
1.1E-05
*Conductivity
14
*Specific heat
440000000
**
** Sections ++++++++++++++++++++++++++++++++++++++++++++++++
**
*Solid section, Elset=Solid_part-1, Material=S235
*Solid section, Elset=Solid_part-2, Material=S235
**
** Pre-tension sections ++++++++++++++++++++++++++++++++++++
**
**
** Constraints +++++++++++++++++++++++++++++++++++++++++++++
**
*Rigid body, Nset=Internal_Selection-1_Rigid_Body-1, Ref node=6507, Rot node=6508
**
** Surface interactions ++++++++++++++++++++++++++++++++++++
**
*Surface interaction, Name=Surface_Interaction-1
*Surface behavior, Pressure-overclosure=Hard
*Friction
0.25
**
** Contact pairs +++++++++++++++++++++++++++++++++++++++++++
**
*Contact pair, Interaction=Surface_Interaction-1, Type=Surface to surface, Adjust=0
Internal_Selection-1_Contact_Pair-1_Slave, Internal_Selection-1_Contact_Pair-1_Master
**
** Amplitudes ++++++++++++++++++++++++++++++++++++++++++++++
**
**
** Initial conditions ++++++++++++++++++++++++++++++++++++++
**
** Name: Velocity-1
*Initial conditions, Type=Velocity
Solid_part-2_fromEl, 3, -1000
**
** Steps +++++++++++++++++++++++++++++++++++++++++++++++++++
**
**
** Step-1 ++++++++++++++++++++++++++++++++++++++++++++++++++
**
*Step, Inc=1000
*Dynamic, Explicit=3
1E-06, 0.02, 1E-06, 1E+30
**
** Controls ++++++++++++++++++++++++++++++++++++++++++++++++
**
**
** Output frequency ++++++++++++++++++++++++++++++++++++++++
**
*Output, Frequency=200
**
** Boundary conditions +++++++++++++++++++++++++++++++++++++
**
*Boundary, op=New
** Name: Fixed-1
*Boundary
6507, 1, 3, 0
6508, 1, 3, 0
**
** Loads +++++++++++++++++++++++++++++++++++++++++++++++++++
**
*Cload, op=New
*Dload, op=New
**
** Defined fields ++++++++++++++++++++++++++++++++++++++++++
**
**
** History outputs +++++++++++++++++++++++++++++++++++++++++
**
**
** Field outputs +++++++++++++++++++++++++++++++++++++++++++
**
*Node file
RF, U, V
*El file
S, E, ENER, NOE
**
** End step ++++++++++++++++++++++++++++++++++++++++++++++++
**
*End step
