#RADIOSS STARTER
# Input deck generated by inp2rad python script, please verify correct input!
# REPORT ISSUES to https://github.com/OpenRadioss/Tools/discussions
/BEGIN
bullet
      2023         0
                  Mg                  mm                   s
                  Mg                  mm                   s
#---1----|----2----|----3----|----4----|----5----|----6----|----7----|----8----|----9----|---10----|
#-  1. MATERIALS:
#---1----|----2----|----3----|----4----|----5----|----6----|----7----|----8----|----9----|---10----|
/MAT/PLAS_PREDEF/1
Material for generic mild steel
#
HSS
#---1----|----2----|----3----|----4----|----5----|----6----|----7----|----8----|----9----|---10----|
/FAIL/BIQUAD/1
#                 c1                  c2                  c3                  c4                  c5
                   0                   0                   0                   0                   0
#        P_thickfail    M-Flag    S-Flag          Inst_start           FCT_ID_EL              EI_REF    
                 1.0         2         3                 0.1                   0                   0
#              ICOUP               DCRIT                 EXP    
                   0                                  
#  Fail_ID
#---1----|----2----|----3----|----4----|----5----|----6----|----7----|----8----|----9----|---10----|
#-  2. PARTS 
#---1----|----2----|----3----|----4----|----5----|----6----|----7----|----8----|----9----|---10----|
/PART/1
Solid_part-1
#     prop       mat    subset
         1         1         0
#---1----|----2----|----3----|----4----|----5----|----6----|----7----|----8----|----9----|---10----|
/PART/2
Solid_part-2
#     prop       mat    subset
         2         1         0
#---1----|----2----|----3----|----4----|----5----|----6----|----7----|----8----|----9----|---10----|
#-  3. PROPS 
#---1----|----2----|----3----|----4----|----5----|----6----|----7----|----8----|----9----|---10----|
/PROP/SOLID/1
Solid_part-1
#   Isolid    Ismstr               Icpre  Itetra10     Inpts   Itetra4    Iframe                  dn
        24        -1                  -1         2         0         3         0                  .1
#                q_a                 q_b                   h            LAMBDA_V                MU_V
                 1.1                 .05                   0                   0                   0
#             dt_min            Vdef_min            Vdef_max             ASP_max             COL_min
                 0.0                0.01               100.0               100.0                0.01
#---1----|----2----|----3----|----4----|----5----|----6----|----7----|----8----|----9----|---10----|
/PROP/SOLID/2
Solid_part-2
#   Isolid    Ismstr               Icpre  Itetra10     Inpts   Itetra4    Iframe                  dn
        24        -1                  -1         2         0         3         0                  .1
#                q_a                 q_b                   h            LAMBDA_V                MU_V
                 1.1                 .05                   0                   0                   0
#             dt_min            Vdef_min            Vdef_max             ASP_max             COL_min
                 0.0                0.01               100.0               100.0                0.01
#---1----|----2----|----3----|----4----|----5----|----6----|----7----|----8----|----9----|---10----|
#-  4. NODES:
#---1----|----2----|----3----|----4----|----5----|----6----|----7----|----8----|----9----|---10----|
/NODE
         1               3e-16                   0                  -5
         2               3e-16                   0                   5
         3         0.983153473                   0         -4.90238812
         4          1.92791996                   0          -4.6133637
         5          2.78437808                   0          -4.1529795
         6          3.54662365                   0         -3.52440927
         7          4.16170637                   0         -2.77131739
         8          4.61939766                   0         -1.91341716
         9          4.90545259                   0         -0.96774734
        10                   5                   0                   0
        11          4.90238812                   0         0.983153473
        12           4.6133637                   0          1.92791996
        13           4.1529795                   0          2.78437808
        14          3.52440927                   0          3.54662365
        15          2.77131739                   0          4.16170637
        16          1.89889548                   0          4.62538603
        17          0.96774734                   0          4.90545259
        18         0.466537557         0.911529899         -4.89402247
        19          1.44991239         0.885172799         -4.70257623
        20          2.36355305         0.881674704         -4.31697425
# ... 6488 like lines cut
#---1----|----2----|----3----|----4----|----5----|----6----|----7----|----8----|----9----|---10----|
#-  5. ELEMENTS:
#---1----|----2----|----3----|----4----|----5----|----6----|----7----|----8----|----9----|---10----|
# 4 Noded Tetrahedral Elements for PART: Solid_part-2, PID: 2
#---1----|----2----|----3----|----4----|----5----|----6----|----7----|----8----|----9----|---10----|
/TETRA4/2
         1       382       476       381       475
         2       411       416       404       485
         3       461       145       463       186
         4       276       295       424       431
         5       406       253       411       296
         6       125       403        91       376
         7        46       387       386        10
         8       461       145       186       162
         9       450       341       492       457
        10       471       485       469       384
        11       438       425       487       426
        12       125       410       376       185
        13         8       386        37       382
        14       426       305       304       487
        15       378       481        18       373
        16       461       145       162       398
        17       385       381       382       477
        18       435       432       456       490
        19       463       226       157       467
        20       420       302       329       328
# ... 1639 like lines cut
#---1----|----2----|----3----|----4----|----5----|----6----|----7----|----8----|----9----|---10----|
# 4 Noded Tetrahedral Elements for PART: Solid_part-1, PID: 1
#---1----|----2----|----3----|----4----|----5----|----6----|----7----|----8----|----9----|---10----|
/TETRA4/1
      1660      3695       566       565       515
      1661      3075      5782      5913      5739
      1662      3316      3380      6136      6138
      1663      2941      2837      3006      5668
      1664      2941      5566      5567      5667
      1665      6136      3380      3316      3318
      1666      2764      5649      2870      5746
      1667      4816      2007      4714      4970
      1668      3937      4213      4140      1334
      1669      2386      2385      5429      2252
      1670      2656      5542      5541      5679
      1671       770       944       721      3740
      1672      2870      5753      5746      5649
      1673      2764      5649      5746      5679
      1674      3452      6218      6289      3394
      1675      2474      2444      2338      5061
      1676      5522      2816      5627      2845
      1677      3329      6224      3328      3394
      1678      6307      3454      3395      3396
      1679      4097      3910      4096      1261
# ... 17407 like lines cut
#---1----|----2----|----3----|----4----|----5----|----6----|----7----|----8----|----9----|---10----|
#-  6. GRNOD groups and time history requests
#---1----|----2----|----3----|----4----|----5----|----6----|----7----|----8----|----9----|---10----|
/GRNOD/NODE/1
Internal_Selection-1_Rigid_Body-1
       495       496       497       498       499       500       501       502       503       504
       505       506       507       508       509       510       511       512       513       514
       515       516       517       518       519       520       521       522       523       524
       525       526       527       528       529       530       531       532       533       534
       535       536       537       538       539       540       541       542       543       544
       545       546       547       548       549       550       551       552       553       554
       555       556       557       558       559       560       561       562       563       564
       565       566       567       568       569       570       571       572       573       574
       575       576       577       578       579       580       581       582       583       584
       585       586       587       588       589       590       591       592       593       594
       595       596       597       598       599       600       601       602       603       604
       605       606       607       608       609       610       611       612       613       614
       615       616       617       618       619       620       621       622       623       624
       625       626       627       628       629       630       631       632       633       634
       635       636       637       638       639       640       641       642       643       644
       645       646       647       648       649       650       651       652       653       654
       655       656       657       658       659       660       661       662       663       664
       665       666       667       668       669       670       671       672       673       674
       675       676       677       678       679       680       681       682       683       684
       685       686       687       688       689       690       691       692       693       694
# ... 22 like lines cut
#---1----|----2----|----3----|----4----|----5----|----6----|----7----|----8----|----9----|---10----|
/GRNOD/NODE/2
Internal-1_Internal_Selection-1_Contact_Pair-1_Master
         1         2         3         4         5         6         7         8         9        10
        11        12        13        14        15        16        17        18        19        20
        21        22        23        24        25        26        27        28        29        30
        31        32        33        34        35        36        37        38        39        40
        41        42        43        44        45        46        47        48        49        50
        51        52        53        54        55        56        57        58        59        60
        61        62        63        64        65        66        67        68        69        70
        71        72        73        74        75        76        77        78        79        80
        81        82        83        84        85        86        87        88        89        90
        91        92        93        94        95        96        97        98        99       100
       101       102       103       104       105       106       107       108       109       110
       111       112       113       114       115       116       117       118       119       120
       121       122       123       124       125       126       127       128       129       130
       131       132       133       134       135       136       137       138       139       140
       141       142       143       144       145       146       147       148       149       150
       151       152       153       154       155       156       157       158       159       160
       161       162       163       164       165       166       167       168       169       170
       171       172       173       174       175       176       177       178       179       180
       181       182       183       184       185       186       187       188       189       190
       191       192       193       194       195       196       197       198       199       200
# ... 17 like lines cut
#---1----|----2----|----3----|----4----|----5----|----6----|----7----|----8----|----9----|---10----|
/GRNOD/NODE/3
Internal-1_Internal_Selection-1_Contact_Pair-1_Slave
       495       496       497       498       499       500       501       502       503       504
       505       506       507       508       509       510       511       512       513       514
       515       516       517       518       519       520       521       522       523       524
       525       526       527       528       529       530       531       532       533       534
       535       536       537       538       539       540       541       542       543       544
       545       546       547       548       549       550       551       552       553       554
       555       556       557       558       559       560       561       562       563       564
       565       566       567       568       569       570       571       572       573       574
       575       576       577       578       579       580       581       582       583       584
       585       586       587       588       589       590       591       592       593       594
       595       596       597       598       599       600       601       602       603       604
       605       606       607       608       609       610       611       612       613       614
       615       616       617       618       619       620       621       622       623       624
       625       626       627       628       629       630       631       632       633       634
       635       636       637       638       639       640       641       642       643       644
       645       646       647       648       649       650       651       652       653       654
       655       656       657       658       659       660       661       662       663       664
       665       666       667       668       669       670       671       672       673       674
       675       676       677       678       679       680       681       682       683       684
       685       686       687       688       689       690       691       692       693       694
# ... 582 like lines cut
#---1----|----2----|----3----|----4----|----5----|----6----|----7----|----8----|----9----|---10----|
/GRNOD/NODE/4
Reference_Point-1_ref_6507
      6507
#---1----|----2----|----3----|----4----|----5----|----6----|----7----|----8----|----9----|---10----|
/GRNOD/NODE/5
Reference_Point-1_rot_6508
      6508
#---1----|----2----|----3----|----4----|----5----|----6----|----7----|----8----|----9----|---10----|
/GRNOD/NODE/6
Solid_part-2_fromEl
         1         2         3         4         5         6         7         8         9        10
        11        12        13        14        15        16        17        18        19        20
        21        22        23        24        25        26        27        28        29        30
        31        32        33        34        35        36        37        38        39        40
        41        42        43        44        45        46        47        48        49        50
        51        52        53        54        55        56        57        58        59        60
        61        62        63        64        65        66        67        68        69        70
        71        72        73        74        75        76        77        78        79        80
        81        82        83        84        85        86        87        88        89        90
        91        92        93        94        95        96        97        98        99       100
       101       102       103       104       105       106       107       108       109       110
       111       112       113       114       115       116       117       118       119       120
       121       122       123       124       125       126       127       128       129       130
       131       132       133       134       135       136       137       138       139       140
       141       142       143       144       145       146       147       148       149       150
       151       152       153       154       155       156       157       158       159       160
       161       162       163       164       165       166       167       168       169       170
       171       172       173       174       175       176       177       178       179       180
       181       182       183       184       185       186       187       188       189       190
       191       192       193       194       195       196       197       198       199       200
# ... 30 like lines cut
#---1----|----2----|----3----|----4----|----5----|----6----|----7----|----8----|----9----|---10----|
#Solid Element Group for standalone *ELSET entries in .inp input
#---1----|----2----|----3----|----4----|----5----|----6----|----7----|----8----|----9----|---10----|
/GRBRIC/BRIC/7
Group of BRICKs,PENTAs,TETRAs derived from Internal-1_Internal_Selection-1_Contact_Pair-1_Master_S3
#   BRICKS
      1025      1018      1540      1029      1030         8      1034      1549      1039       531
        20       532        24       537      1048      1052        28      1054        30      1055
      1057      1567       551      1575       554      1067      1069      1071      1073      1585
      1076      1078        60       575      1088      1092        69      1093      1094        77
      1613      1104        86       599        88        93       607       609      1634      1635
       616       617       108       620       621       624       626      1138       117       131
      1155      1167      1168       150       156      1184      1186      1187      1190       169
       682       685      1198      1203       693      1209       700       701       709       199
       204      1229      1230      1231       213       734       225      1250       739      1252
       744       233      1258       754       243       756       245      1271       760       253
       262      1288       267      1292      1295      1299      1301       278       279       791
       798      1311       291       294       297      1324       816      1332      1333       822
      1335      1336       314      1339      1340      1342       321       838       331       844
       333       846       335       847      1368       350       865      1384       873      1388
       375      1403       380       892       898       903       910      1424      1425       917
       918      1431       923       924      1437       926      1441       420      1445       422
       935       936       425      1450       939       434      1460      1461      1466       955
       445      1471       448       450       962       966       455       456       969       970
       971      1484       465      1489      1493      1494       983       986       987      1508
       999      1000      1002       493       497      1011      1013       502       503      1530
      1532
#---1----|----2----|----3----|----4----|----5----|----6----|----7----|----8----|----9----|---10----|
#Node group based on standalone BRICK *ELSET entries in .inp input
#---1----|----2----|----3----|----4----|----5----|----6----|----7----|----8----|----9----|---10----|
/GRNOD/GRBRIC/8
Node Group of BRICKs derived from Internal-1_Internal_Selection-1_Contact_Pair-1_Master_S3
# GRBRICID
         7
#---1----|----2----|----3----|----4----|----5----|----6----|----7----|----8----|----9----|---10----|
#Solid Element Group for standalone *ELSET entries in .inp input
#---1----|----2----|----3----|----4----|----5----|----6----|----7----|----8----|----9----|---10----|
/GRBRIC/BRIC/9
Group of BRICKs,PENTAs,TETRAs derived from Internal-1_Internal_Selection-1_Contact_Pair-1_Master_S2
#   BRICKS
       512      1538      1543       524      1556        21      1047       536      1049      1562
        26      1564        34       546        36      1061      1063        40       553      1578
       557       558        48       561      1074      1586        52      1587       569      1081
        59      1085       574      1086      1087        65      1090        67       581      1605
      1100      1614      1617      1106      1621       600       602       604      1120        97
        99      1124      1125      1637      1640      1129       116       118      1143       121
       638       128       645      1157       656      1171       664       665      1193       170
       175      1200       690      1202      1205       697       698       188       196       197
       201      1226       205       717       723      1235       216       728      1243       732
      1248       226      1255       236      1261       244       757      1270       249      1273
      1283       261      1287       780       269      1300       793       794       795       811
       813      1325      1326       818      1330      1337      1341       319      1343       833
       841      1357      1358      1361       852       855       859       348      1371       862
       351      1373       368       880       883       888       379       383       388      1412
      1414      1415      1422       401       913       914       406       408      1432       925
      1439       929       421       934      1446      1448       937       427       943       946
      1462       951       440       953      1469       958       449       963       964       967
       972       976       977      1490       471      1497      1498      1499       989      1504
       994      1507       487       489      1005      1519      1521       500      1524      1527
      1016
#---1----|----2----|----3----|----4----|----5----|----6----|----7----|----8----|----9----|---10----|
#Node group based on standalone BRICK *ELSET entries in .inp input
#---1----|----2----|----3----|----4----|----5----|----6----|----7----|----8----|----9----|---10----|
/GRNOD/GRBRIC/10
Node Group of BRICKs derived from Internal-1_Internal_Selection-1_Contact_Pair-1_Master_S2
# GRBRICID
         9
#---1----|----2----|----3----|----4----|----5----|----6----|----7----|----8----|----9----|---10----|
#Solid Element Group for standalone *ELSET entries in .inp input
#---1----|----2----|----3----|----4----|----5----|----6----|----7----|----8----|----9----|---10----|
/GRBRIC/BRIC/11
Group of BRICKs,PENTAs,TETRAs derived from Internal-1_Internal_Selection-1_Contact_Pair-1_Master_S4
#   BRICKS
       514      1028      1541      1033      1547      1037      1040      1022      1023       540
      1053       541        31      1568      1058      1572       550      1064      1066        51
      1077        54      1590      1080      1592       570       572       573        66      1091
       580       582      1606      1610      1611      1101       591        80       597      1110
       601        90      1626        94       606      1128      1641       618       111      1136
       629      1653       631       635       124      1150       641       643      1159       648
       137       141       147       663       153       666       670       163       167       168
       171       173      1197       694       183       184       187      1213       702      1216
       705      1222       714       203       716       206       718       208       719       720
      1234       724       727       222       223       737      1253       235      1262      1263
      1269      1272       767       256       259       772       773       779       271       788
       790       281      1305       283      1312      1315       806      1320       302       303
       817       826      1345       323      1347       839       334       854       344      1372
       863       359       881       891       381       385       392       396      1421       915
      1428      1430       919       922      1438       416       930      1444       938      1452
       942       433      1459       437      1463       952       441       960       961      1482
      1485       984      1500       478       991      1001      1003       494      1014      1529
       509      1534      1535
#---1----|----2----|----3----|----4----|----5----|----6----|----7----|----8----|----9----|---10----|
#Node group based on standalone BRICK *ELSET entries in .inp input
#---1----|----2----|----3----|----4----|----5----|----6----|----7----|----8----|----9----|---10----|
/GRNOD/GRBRIC/12
Node Group of BRICKs derived from Internal-1_Internal_Selection-1_Contact_Pair-1_Master_S4
# GRBRICID
        11
#---1----|----2----|----3----|----4----|----5----|----6----|----7----|----8----|----9----|---10----|
#Solid Element Group for standalone *ELSET entries in .inp input
#---1----|----2----|----3----|----4----|----5----|----6----|----7----|----8----|----9----|---10----|
/GRBRIC/BRIC/13
Group of BRICKs,PENTAs,TETRAs derived from Internal-1_Internal_Selection-1_Contact_Pair-1_Master_S1
#   BRICKS
       517       526      1555       533      1569      1571      1573        38        39        42
        44        45      1068        47      1070      1589       566       567       571      1598
        64       577       578      1603        68        71       592        82       596      1113
        95      1633      1123       106      1646       623       114       115       630      1655
      1656      1658      1147      1151       639      1156       134       646       652      1165
       144       657       146      1170       155       157       158      1181      1185      1191
       680      1194       686      1208      1215      1217       708      1220       710       202
       715       207      1237       726       729      1247      1249       740       741      1254
       746       237       239      1264       241      1266      1267       759       248       761
       762      1275       252       764      1277      1279       770      1285       774       266
       782       783      1297       275       789      1304      1307      1310      1313       802
       805      1321       810       300       315       318       831       322       326       328
      1356       850       339       853       861       353       356       364       366       367
      1393      1397       382      1413       902      1417       906       907       909       399
       402      1429       412       415       928      1442       429       941       948       438
      1464      1467      1470       959      1479      1480       460       463       464       466
       978      1491      1496      1501       479       992      1510      1007      1523      1528
      1531
#---1----|----2----|----3----|----4----|----5----|----6----|----7----|----8----|----9----|---10----|
#Node group based on standalone BRICK *ELSET entries in .inp input
#---1----|----2----|----3----|----4----|----5----|----6----|----7----|----8----|----9----|---10----|
/GRNOD/GRBRIC/14
Node Group of BRICKs derived from Internal-1_Internal_Selection-1_Contact_Pair-1_Master_S1
# GRBRICID
        13
#---1----|----2----|----3----|----4----|----5----|----6----|----7----|----8----|----9----|---10----|
#Solid Element Group for standalone *ELSET entries in .inp input
#---1----|----2----|----3----|----4----|----5----|----6----|----7----|----8----|----9----|---10----|
/GRBRIC/BRIC/15
Group of BRICKs,PENTAs,TETRAs derived from Internal-1_Internal_Selection-1_Contact_Pair-1_Slave_S1
#   BRICKS
      8192     16388      8199     16397      8205     16398      8208     16399      8210     16407
      8222     16415      8224      8227      8230      8233     16427     16428     16429      8239
      8240     16431     16434     16437      8246      8254      8255     16447      8257     16448
      8260      8265      8268      8272      8275     16467     16474      8284      8290     16488
      8301     16495      8305      8307      8308     16503      8312      8313      8318     16511
     16513     16519     16521     16531      8341      8343     16538     16547      8357      8358
     16556      8370      8371     16566      8378     16571     16575     16576     16578      8388
      8392     16585     16586      8395      8399      8407     16605      8418      8421     16620
     16631      8448      8456      8471     16668     16669      8481     16673      8484     16677
      8488      8489     16683      8500      8501     16693      8505     16704      8513      8514
     16707     16708      8520      8521      8526     16721      8530      8537     16733      8544
     16738      8548      8557      8558     16752     16765      8578     16772     16780      8598
     16796     16798     16800      8611      8613      8614     16806      8618      8619      8620
      8623      8628     16822      8632      8637      8639     16831      8643     16836     16842
      8670     16863      8673     16867     16868      8678      8683      8691     16888      8698
      8706     16903     16908      8720     16918      8728     16920     16924     16926     16928
     16929      8749     16941     16942      8752      8753     16944      8761      8769      8771
     16965     16967      8776     16968     16980      8792      8801      8803      8804      8810
     17003     17004     17011     17012     17015     17018      8830     17022     17033      8844
      8845     17036      8848      8849      8852     17045      8854      8859     17052      8863
# ... 266 like lines cut
#---1----|----2----|----3----|----4----|----5----|----6----|----7----|----8----|----9----|---10----|
#Node group based on standalone BRICK *ELSET entries in .inp input
#---1----|----2----|----3----|----4----|----5----|----6----|----7----|----8----|----9----|---10----|
/GRNOD/GRBRIC/16
Node Group of BRICKs derived from Internal-1_Internal_Selection-1_Contact_Pair-1_Slave_S1
# GRBRICID
        15
#---1----|----2----|----3----|----4----|----5----|----6----|----7----|----8----|----9----|---10----|
#Solid Element Group for standalone *ELSET entries in .inp input
#---1----|----2----|----3----|----4----|----5----|----6----|----7----|----8----|----9----|---10----|
/GRBRIC/BRIC/17
Group of BRICKs,PENTAs,TETRAs derived from Internal-1_Internal_Selection-1_Contact_Pair-1_Slave_S3
#   BRICKS
     16384      8193      8200     16396      8207     16401      8213     16411      8221     16419
     16425      8234     16430     16433     16440      8249     16443     16445      8259     16451
     16453     16458     16461     16465      8277      8279      8280      8282      8288      8289
      8293      8304     16498      8309     16501     16506     16509     16514      8323     16517
      8330      8334      8336     16529     16532     16534     16535     16536      8346     16539
     16549     16552      8361     16553     16554      8365      8366      8373     16567      8376
      8377     16569      8381     16574      8385     16584     16586      8395      8396     16587
     16588     16592      8402     16595      8404     16598      8408     16600     16602     16603
      8416     16608     16612      8423     16618      8427     16623      8432     16625      8435
      8442     16634      8444      8445      8446      8447      8452      8454     16646     16649
      8458      8461     16653     16655     16656     16658     16661      8478      8480     16672
     16678      8492      8493     16686      8495     16688      8499     16696     16697     16698
     16705      8516     16714     16718      8530     16722      8533     16725     16728      8542
     16734     16741      8550     16743      8552      8554     16750      8559      8560     16751
      8562      8565      8569      8573      8577     16770      8579      8585      8586      8590
      8592     16784      8594     16785      8596     16792     16810     16811      8621     16816
     16817     16819     16821      8631     16826      8641      8642     16833     16838      8650
     16842     16844      8654      8657      8659      8661      8662     16855      8664      8665
      8672      8674      8675      8676     16867     16868      8681     16873     16874      8684
      8694     16889      8697     16890      8699      8700     16893      8702     16896     16897
# ... 286 like lines cut
#---1----|----2----|----3----|----4----|----5----|----6----|----7----|----8----|----9----|---10----|
#Node group based on standalone BRICK *ELSET entries in .inp input
#---1----|----2----|----3----|----4----|----5----|----6----|----7----|----8----|----9----|---10----|
/GRNOD/GRBRIC/18
Node Group of BRICKs derived from Internal-1_Internal_Selection-1_Contact_Pair-1_Slave_S3
# GRBRICID
        17
#---1----|----2----|----3----|----4----|----5----|----6----|----7----|----8----|----9----|---10----|
#Solid Element Group for standalone *ELSET entries in .inp input
#---1----|----2----|----3----|----4----|----5----|----6----|----7----|----8----|----9----|---10----|
/GRBRIC/BRIC/19
Group of BRICKs,PENTAs,TETRAs derived from Internal-1_Internal_Selection-1_Contact_Pair-1_Slave_S2
#   BRICKS
     16391      8206     16400      8211      8212     16404      8217     16417      8226     16418
      8228     16420     16422     16423     16425      8235      8236      8237      8238     16432
      8242     16440     16441     16442      8253     16452      8261      8262     16455      8264
      8267     16459      8271     16471     16473      8283     16475     16477      8286     16480
      8291      8292     16483     16484     16486     16489     16490      8300     16492      8302
     16493     16494     16495     16504      8315      8316     16510      8319     16515      8324
     16517      8333      8339     16531     16539      8352      8353      8356      8360     16559
     16561     16566      8375     16568     16570      8380     16572     16579     16580     16581
     16582      8398     16590     16591     16593     16596      8406     16604      8415     16611
      8424     16619     16620     16621      8430      8436     16629     16630     16632     16637
     16638     16639     16640      8451     16644     16651      8462      8468      8469      8470
     16660     16664      8474     16667     16670      8479     16674      8486      8497     16690
     16692     16695      8504      8506      8507     16703     16707     16710      8522      8523
      8524      8525     16717     16723      8532     16724      8536     16729     16737     16738
     16740     16742     16747     16749      8561     16754     16756     16758     16760      8570
     16763      8576     16769      8580      8582     16778      8587      8589     16782     16785
      8601     16794      8605     16803      8616      8617     16809     16814      8626     16818
      8635     16828      8638      8645     16837     16838      8648     16839     16843     16848
     16851     16853     16854      8667      8668     16859     16860     16862     16864     16871
      8680      8682     16877      8686     16878      8688     16879      8690     16883      8692
# ... 305 like lines cut
#---1----|----2----|----3----|----4----|----5----|----6----|----7----|----8----|----9----|---10----|
#Node group based on standalone BRICK *ELSET entries in .inp input
#---1----|----2----|----3----|----4----|----5----|----6----|----7----|----8----|----9----|---10----|
/GRNOD/GRBRIC/20
Node Group of BRICKs derived from Internal-1_Internal_Selection-1_Contact_Pair-1_Slave_S2
# GRBRICID
        19
#---1----|----2----|----3----|----4----|----5----|----6----|----7----|----8----|----9----|---10----|
#Solid Element Group for standalone *ELSET entries in .inp input
#---1----|----2----|----3----|----4----|----5----|----6----|----7----|----8----|----9----|---10----|
/GRBRIC/BRIC/21
Group of BRICKs,PENTAs,TETRAs derived from Internal-1_Internal_Selection-1_Contact_Pair-1_Slave_S4
#   BRICKS
      8195      8196     16390     16393      8202      8203      8204     16395      8209     16403
      8212      8214      8216     16408     16410     16414      8223     16420      8231      8232
     16426     16435      8244      8245     16438      8247      8248     16441      8250      8252
     16444      8258     16450     16453      8263      8269     16461     16463      8273      8274
     16469     16472      8281     16476     16478     16496     16497      8306      8310     16505
     16508     16512      8321     16516      8325     16519     16524     16533      8347      8354
     16546     16549     16550      8359      8363      8367     16565      8379      8382     16578
      8390     16587      8400      8401      8403     16597      8410      8414     16607      8419
     16614      8425      8428     16622     16624      8438      8439      8441     16633      8443
      8445     16642     16643     16646     16651      8460      8464      8465      8466     16657
      8473     16665      8475      8477     16670      8487     16682      8491     16685     16689
      8498     16691      8502     16702      8511     16706      8515      8517     16711     16712
     16715     16716      8528      8538     16731     16736      8545      8547      8549     16741
      8551      8553     16745     16746     16753      8564     16757      8575      8583      8584
     16776      8588     16781     16786     16787      8597     16789     16793      8602      8606
     16799     16804      8615     16807     16813     16815      8625     16820     16825      8636
      8640     16833      8646     16839      8649      8652     16846      8655     16849      8658
     16850      8660     16852     16857     16858     16859     16860      8669     16862     16864
     16865     16866     16880     16882     16886     16891      8702     16895      8704      8705
      8708      8713      8714      8722     16914     16915     16919      8730      8733      8741
# ... 267 like lines cut
#---1----|----2----|----3----|----4----|----5----|----6----|----7----|----8----|----9----|---10----|
#Node group based on standalone BRICK *ELSET entries in .inp input
#---1----|----2----|----3----|----4----|----5----|----6----|----7----|----8----|----9----|---10----|
/GRNOD/GRBRIC/22
Node Group of BRICKs derived from Internal-1_Internal_Selection-1_Contact_Pair-1_Slave_S4
# GRBRICID
        21
#---1----|----2----|----3----|----4----|----5----|----6----|----7----|----8----|----9----|---10----|
#Node group based on all *ELSET entries in .inp input
#---1----|----2----|----3----|----4----|----5----|----6----|----7----|----8----|----9----|---10----|
/GRNOD/GRNOD/23
Node Group of all nodes of Internal-1_Internal_Selection-1_Contact_Pair-1_Master_S3
#  GRNODID
         8
#---1----|----2----|----3----|----4----|----5----|----6----|----7----|----8----|----9----|---10----|
#Node group based on all *ELSET entries in .inp input
#---1----|----2----|----3----|----4----|----5----|----6----|----7----|----8----|----9----|---10----|
/GRNOD/GRNOD/24
Node Group of all nodes of Internal-1_Internal_Selection-1_Contact_Pair-1_Master_S2
#  GRNODID
        10
#---1----|----2----|----3----|----4----|----5----|----6----|----7----|----8----|----9----|---10----|
#Node group based on all *ELSET entries in .inp input
#---1----|----2----|----3----|----4----|----5----|----6----|----7----|----8----|----9----|---10----|
/GRNOD/GRNOD/25
Node Group of all nodes of Internal-1_Internal_Selection-1_Contact_Pair-1_Master_S4
#  GRNODID
        12
#---1----|----2----|----3----|----4----|----5----|----6----|----7----|----8----|----9----|---10----|
#Node group based on all *ELSET entries in .inp input
#---1----|----2----|----3----|----4----|----5----|----6----|----7----|----8----|----9----|---10----|
/GRNOD/GRNOD/26
Node Group of all nodes of Internal-1_Internal_Selection-1_Contact_Pair-1_Master_S1
#  GRNODID
        14
#---1----|----2----|----3----|----4----|----5----|----6----|----7----|----8----|----9----|---10----|
#Node group based on all *ELSET entries in .inp input
#---1----|----2----|----3----|----4----|----5----|----6----|----7----|----8----|----9----|---10----|
/GRNOD/GRNOD/27
Node Group of all nodes of Internal-1_Internal_Selection-1_Contact_Pair-1_Slave_S1
#  GRNODID
        16
#---1----|----2----|----3----|----4----|----5----|----6----|----7----|----8----|----9----|---10----|
#Node group based on all *ELSET entries in .inp input
#---1----|----2----|----3----|----4----|----5----|----6----|----7----|----8----|----9----|---10----|
/GRNOD/GRNOD/28
Node Group of all nodes of Internal-1_Internal_Selection-1_Contact_Pair-1_Slave_S3
#  GRNODID
        18
#---1----|----2----|----3----|----4----|----5----|----6----|----7----|----8----|----9----|---10----|
#Node group based on all *ELSET entries in .inp input
#---1----|----2----|----3----|----4----|----5----|----6----|----7----|----8----|----9----|---10----|
/GRNOD/GRNOD/29
Node Group of all nodes of Internal-1_Internal_Selection-1_Contact_Pair-1_Slave_S2
#  GRNODID
        20
#---1----|----2----|----3----|----4----|----5----|----6----|----7----|----8----|----9----|---10----|
#Node group based on all *ELSET entries in .inp input
#---1----|----2----|----3----|----4----|----5----|----6----|----7----|----8----|----9----|---10----|
/GRNOD/GRNOD/30
Node Group of all nodes of Internal-1_Internal_Selection-1_Contact_Pair-1_Slave_S4
#  GRNODID
        22
#---1----|----2----|----3----|----4----|----5----|----6----|----7----|----8----|----9----|---10----|
#-  7. BCS and IMPDISP definitions
#---1----|----2----|----3----|----4----|----5----|----6----|----7----|----8----|----9----|---10----|
/BCS/33
6507
#  Tra rot   skew_ID  grnod_ID
   111 111         0        33
#---1----|----2----|----3----|----4----|----5----|----6----|----7----|----8----|----9----|---10----|
/GRNOD/NODE/33
node group containing only node 6507 for BCS
#   NODEID
      6507
#---1----|----2----|----3----|----4----|----5----|----6----|----7----|----8----|----9----|---10----|
/INIVEL/TRA/6
Solid_part-2_fromEl
#                 Vx                  Vy                  Vz   Gnod_id   Skew_id
                   0                   0               -1000         6
#---1----|----2----|----3----|----4----|----5----|----6----|----7----|----8----|----9----|---10----|
#-  8. FUNCTIONS
#---1----|----2----|----3----|----4----|----5----|----6----|----7----|----8----|----9----|---10----|
# FUNCTION 1 from *AMPLITUDE DEFAULT CONSTANT OVER STEP
#---1----|----2----|----3----|----4----|----5----|----6----|----7----|----8----|----9----|---10----|
/FUNCT/1
DEFAULT CONSTANT OVER STEP
#                  X                   Y
          0.00000000          1.00000000
          1.00000000          1.00000000
#---1----|----2----|----3----|----4----|----5----|----6----|----7----|----8----|----9----|---10----|
#-  9. RIGID BODY from PART definitions
#---1----|----2----|----3----|----4----|----5----|----6----|----7----|----8----|----9----|---10----|
# RBODY based on nset Internal_Selection-1_Rigid_Body-1
#---1----|----2----|----3----|----4----|----5----|----6----|----7----|----8----|----9----|---10----|
/RBODY/19087
Internal_Selection-1_Rigid_Body-1
#     RBID     ISENS     NSKEW    ISPHER                MASS   Gnod_id     IKREM      ICOG   Surf_id
      6507         0         0         0                   0         1         0         3         0
#                Jxx                 Jyy                 Jzz
                   0                   0                   0
#                Jxy                 Jyz                 Jxz
                   0                   0                   0
#  Ioptoff   Iexpams
         0         0
#---1----|----2----|----3----|----4----|----5----|----6----|----7----|----8----|----9----|---10----|
/GRNOD/NODE/34
RBODY Internal_Selection-1_Rigid_Body-1 main node
#   NODEID
      6507
#---1----|----2----|----3----|----4----|----5----|----6----|----7----|----8----|----9----|---10----|
#- 10. RIGID BODY from COUPLING definitions
#---1----|----2----|----3----|----4----|----5----|----6----|----7----|----8----|----9----|---10----|
#- 11. RBE3 from COUPLING and DCOUP3D definitions
#---1----|----2----|----3----|----4----|----5----|----6----|----7----|----8----|----9----|---10----|
#- 12. SPRING MPCs from TIE definitions
#---1----|----2----|----3----|----4----|----5----|----6----|----7----|----8----|----9----|---10----|
#- 13. TIED INTERFACES
#---1----|----2----|----3----|----4----|----5----|----6----|----7----|----8----|----9----|---10----|
#- 14. INTERFACES
#---1----|----2----|----3----|----4----|----5----|----6----|----7----|----8----|----9----|---10----|
#Contact from Contact Pair: ID 1 : Interaction Name: Surface_Interaction-1
#---1----|----2----|----3----|----4----|----5----|----6----|----7----|----8----|----9----|---10----|
/INTER/TYPE24/1
Surface_Interaction-1
# Surf_ID1  Surf_ID2      Istf                       Irem_i2                Idel
         1         2         4                             0                   0
# grnd_IDS                         Iedge          Edge_angle           Gap_max_s           Gap_max_m
         0                             0                   0                   0                   0
#              Stmin               Stmax     Igap0     Ipen0            Ipen_max
                   0                   0         0         0                   0
#              Stfac                Fric                                  Tstart               Tstop
                   0                0.25                                       0                   0
#      IBC                        Inacti               ViscS                             
       000                             5                   0
#    Ifric    Ifiltr               Xfreq             sens_ID                                 fric_ID
         0         0                   0                   0                                       0
#---1----|----2----|----3----|----4----|----5----|----6----|----7----|----8----|----9----|---10----|
#- 15. SURFACES
#---1----|----2----|----3----|----4----|----5----|----6----|----7----|----8----|----9----|---10----|
#Node Group generated from SURF SEGS, Internal_Selection-1_Contact_Pair-1_Master___nodes
#---1----|----2----|----3----|----4----|----5----|----6----|----7----|----8----|----9----|---10----|
/GRNOD/SURF/31
Internal_Selection-1_Contact_Pair-1_Master___nodes
         1
#---1----|----2----|----3----|----4----|----5----|----6----|----7----|----8----|----9----|---10----|
#SURF SEGS for surface Internal_Selection-1_Contact_Pair-1_Master
#---1----|----2----|----3----|----4----|----5----|----6----|----7----|----8----|----9----|---10----|
/SURF/SEG/1
Internal_Selection-1_Contact_Pair-1_Master
                 186       145       162
                 329       302       328
                  85       116       107
                 110       148       121
                 219       210       154
                 198       203       151
                 140       100        99
                 112        88       129
                 114       146       117
                 183       146       114
                 183       214       146
                 355       353       365
                  95       118        55
                 307       265       322
                 286       317       343
                 264       223       166
                  47        72        87
                 201       259       253
                 118       152       125
                  52        94        95
# ... 716 like lines cut
#---1----|----2----|----3----|----4----|----5----|----6----|----7----|----8----|----9----|---10----|
#Node Group generated from SURF SEGS, Internal_Selection-1_Contact_Pair-1_Slave___nodes
#---1----|----2----|----3----|----4----|----5----|----6----|----7----|----8----|----9----|---10----|
/GRNOD/SURF/32
Internal_Selection-1_Contact_Pair-1_Slave___nodes
         2
#---1----|----2----|----3----|----4----|----5----|----6----|----7----|----8----|----9----|---10----|
#SURF SEGS for surface Internal_Selection-1_Contact_Pair-1_Slave
#---1----|----2----|----3----|----4----|----5----|----6----|----7----|----8----|----9----|---10----|
/SURF/SEG/2
Internal_Selection-1_Contact_Pair-1_Slave
                3695       566       565
                2941      2837      3006
                3937      4213      4140
                2474      2444      2338
                4097      3910      4096
                5998      6044      5963
                4526      4663      4610
                5733      5630      5732
                 691       692      3775
                5857      5942      5858
                1385      1203      1384
                3431      3432      3372
                1026      1025      1217
                5887      5914      5974
                 658       657       607
                1528      1529      1350
                3646      3608      3633
                3441      3464      3362
                3034      3101      2939
                3138      3041      3121
# ... 11998 like lines cut
#---1----|----2----|----3----|----4----|----5----|----6----|----7----|----8----|----9----|---10----|
#- 16. TRANSFORMS
#---1----|----2----|----3----|----4----|----5----|----6----|----7----|----8----|----9----|---10----|
/END
#---1----|----2----|----3----|----4----|----5----|----6----|----7----|----8----|----9----|---10----|
