**
** Heading +++++++++++++++++++++++++++++++++++++++++++++++++
**
*Heading
Hash: KUlazBdF, Date: 03/19/2025, Unit system: MM_TON_S_C
**
** Nodes +++++++++++++++++++++++++++++++++++++++++++++++++++
**
*Node
1, -1.35675000E+003, -1.60000000E+003, 8.68500000E+002
2, -1.35675000E+003, -8.00000000E+002, 8.68500000E+002
3, 1.35675000E+003, -1.60000000E+003, 8.68500000E+002
4, 1.35675000E+003, -8.00000000E+002, 8.68500000E+002
5, -1.35675000E+003, -1.55000000E+003, 8.68500000E+002
6, -1.35675000E+003, -1.50000000E+003, 8.68500000E+002
7, -1.35675000E+003, -1.45000000E+003, 8.68500000E+002
8, -1.35675000E+003, -1.40000000E+003, 8.68500000E+002
9, -1.35675000E+003, -1.35000000E+003, 8.68500000E+002
10, -1.35675000E+003, -1.30000000E+003, 8.68500000E+002
11, -1.35675000E+003, -1.25000000E+003, 8.68500000E+002
12, -1.35675000E+003, -1.20000000E+003, 8.68500000E+002
13, -1.35675000E+003, -1.15000000E+003, 8.68500000E+002
14, -1.35675000E+003, -1.10000000E+003, 8.68500000E+002
15, -1.35675000E+003, -1.05000000E+003, 8.68500000E+002
16, -1.35675000E+003, -1.00000000E+003, 8.68500000E+002
17, -1.35675000E+003, -9.50000000E+002, 8.68500000E+002
18, -1.35675000E+003, -9.00000000E+002, 8.68500000E+002
19, -1.35675000E+003, -8.50000000E+002, 8.68500000E+002
20, -1.30741364E+003, -1.60000000E+003, 8.68500000E+002
** ... 29373 like lines cut
**
** Elements ++++++++++++++++++++++++++++++++++++++++++++++++
**
*Element, Type=S4, Elset=From_parts-1
1, 1, 20, 143, 5
2, 20, 21, 144, 143
3, 21, 22, 145, 144
4, 22, 23, 146, 145
5, 23, 24, 147, 146
6, 24, 25, 148, 147
7, 25, 26, 149, 148
8, 26, 27, 150, 149
9, 27, 28, 151, 150
10, 28, 29, 152, 151
11, 29, 30, 153, 152
12, 30, 31, 154, 153
13, 31, 32, 155, 154
14, 32, 33, 156, 155
15, 33, 34, 157, 156
16, 34, 35, 158, 157
17, 35, 36, 159, 158
18, 36, 37, 160, 159
19, 37, 38, 161, 160
20, 38, 39, 162, 161
** ... 8285 like lines cut
*Element, Type=S3, Elset=Compound-4
8306, 8625, 8657, 9048
8307, 8657, 8658, 10201
8308, 8659, 8660, 10202
8309, 8661, 8662, 10203
8310, 8663, 8664, 10204
8311, 8665, 8666, 10205
8312, 8667, 8668, 10206
8313, 8669, 8670, 10207
8314, 8671, 8672, 10208
8315, 8673, 8674, 10209
8316, 8675, 8676, 10210
8317, 8677, 8678, 10211
8318, 8679, 8680, 10212
8319, 8681, 8682, 10213
8320, 8683, 8684, 10214
8321, 8685, 8686, 10215
8322, 8687, 8688, 10216
8323, 8689, 8690, 10217
8324, 8691, 8692, 10218
8325, 8693, 8694, 10219
** ... 41434 like lines cut
**
** Node sets +++++++++++++++++++++++++++++++++++++++++++++++
**
*Nset, Nset=Internal_Selection-1_Rigid_Body-2
1, 2, 3, 4, 5, 6, 7, 8, 9, 10, 11, 12, 13, 14, 15, 16, 
17, 18, 19, 20, 21, 22, 23, 24, 25, 26, 27, 28, 29, 30, 31, 32, 
33, 34, 35, 36, 37, 38, 39, 40, 41, 42, 43, 44, 45, 46, 47, 48, 
49, 50, 51, 52, 53, 54, 55, 56, 57, 58, 59, 60, 61, 62, 63, 64, 
65, 66, 67, 68, 69, 70, 71, 72, 73, 74, 75, 76, 77, 78, 79, 80, 
81, 82, 83, 84, 85, 86, 87, 88, 89, 90, 91, 92, 93, 94, 95, 96, 
97, 98, 99, 100, 101, 102, 103, 104, 105, 106, 107, 108, 109, 110, 111, 112, 
113, 114, 115, 116, 117, 118, 119, 120, 121, 122, 123, 124, 125, 126, 127, 128, 
129, 130, 131, 132, 133, 134, 135, 136, 137, 138, 139, 140, 141, 142, 143, 144, 
145, 146, 147, 148, 149, 150, 151, 152, 153, 154, 155, 156, 157, 158, 159, 160, 
161, 162, 163, 164, 165, 166, 167, 168, 169, 170, 171, 172, 173, 174, 175, 176, 
177, 178, 179, 180, 181, 182, 183, 184, 185, 186, 187, 188, 189, 190, 191, 192, 
193, 194, 195, 196, 197, 198, 199, 200, 201, 202, 203, 204, 205, 206, 207, 208, 
209, 210, 211, 212, 213, 214, 215, 216, 217, 218, 219, 220, 221, 222, 223, 224, 
225, 226, 227, 228, 229, 230, 231, 232, 233, 234, 235, 236, 237, 238, 239, 240, 
241, 242, 243, 244, 245, 246, 247, 248, 249, 250, 251, 252, 253, 254, 255, 256, 
257, 258, 259, 260, 261, 262, 263, 264, 265, 266, 267, 268, 269, 270, 271, 272, 
273, 274, 275, 276, 277, 278, 279, 280, 281, 282, 283, 284, 285, 286, 287, 288, 
289, 290, 291, 292, 293, 294, 295, 296, 297, 298, 299, 300, 301, 302, 303, 304, 
305, 306, 307, 308, 309, 310, 311, 312, 313, 314, 315, 316, 317, 318, 319, 320, 
** ... 519 like lines cut
*Nset, Nset=Internal_Selection-1_Rigid_Body-1
8641, 8642, 8643, 8644, 8645, 8646, 8647, 8648, 8649, 8650, 8651, 8652, 8653, 8654, 8655, 8656, 
9657, 9658, 9659, 9660, 9661, 9662, 9663, 9664, 9665, 9666, 9667, 9668, 9669, 9670, 9671, 9750, 
9751, 9752, 9753, 9754, 9755, 9756, 9757, 9758, 9759, 9796, 9797, 9798, 9799, 9800, 9801, 9802, 
9803, 9804, 9805, 9842, 9843, 9844, 9845, 9846, 9847, 9848, 9849, 9850, 9851, 9852, 9853, 9854, 
9855, 9856, 9857, 9858, 9859, 9860, 9861, 9862, 9863, 9864, 9865, 9866, 9867, 9868, 9869, 9870, 
9871, 9872, 9873, 9874, 9875, 9876, 9877, 9878, 9879, 9880, 9881, 9882, 9883, 9884, 9885, 9886, 
9887, 9888, 9889, 9890, 9891, 9892, 9893, 9894, 9895, 9896, 9897, 9898, 9899, 9900, 9901, 9902, 
9903, 9904, 9905, 9906, 9907, 9908, 9909, 9910, 9911, 9912, 9913, 9914, 9915, 9916, 9917, 9918, 
9919, 9920, 9921, 9922, 9923, 9924, 9925, 9926, 9927, 9928, 9929, 9930, 9931, 9932, 9933, 9934, 
9935, 9936, 9937, 9938, 9939, 9940, 9941, 9942, 9943, 10022, 10023, 10024, 10025, 10026, 10027, 10028, 
10029, 10030, 10031, 10068, 10069, 10070, 10071, 10072, 10073, 10074, 10075, 10076, 10077, 10114, 10115, 10116, 
10117, 10118, 10119, 10120, 10121, 10122, 10123, 10124, 10125, 10126, 10127, 10128, 10129, 10130, 10131, 10132, 
10133, 10134, 10135, 10136, 10137, 10138, 10139, 10140, 10141, 10142, 10143, 10144, 10145, 10146, 10147, 10148, 
10149, 10150, 10151, 10152, 10153, 10154, 10155, 10156, 10157, 10158, 10159, 10160, 10161, 10162, 10163, 10164, 
10165, 10166, 10167, 10168, 10169, 10170, 10171, 10172, 10173, 10174, 10175, 10176, 10177, 10178, 10179, 10180, 
10181, 10182, 10183, 10184, 10185, 10186, 10187, 10188, 10189, 10190, 10191, 10192, 10193, 10194, 10195, 10196, 
10197, 10198, 10199, 10200, 26519, 26520, 26521, 26522, 26523, 26524, 26525, 26526, 26527, 26528, 26529, 26530, 
26531, 26532, 26533, 26534, 26535, 26536, 26537, 26538, 26539, 26540, 26541, 26542, 26543, 26544, 26545, 26546, 
26547, 26548, 26549, 26550, 26551, 26552, 26553, 26554, 26555, 26556, 26557, 26558, 26559, 26560, 26561, 26562, 
26563, 26564, 26565, 26566, 26567, 26568, 26569, 26570, 26571, 26572, 26573, 26574, 26575, 26576, 26577, 26578, 
** ... 8 like lines cut
*Nset, Nset=Reference_Point-1_ref_29390
29390
*Nset, Nset=Reference_Point-1_rot_29391
29391
*Nset, Nset=Reference_Point-2_ref_29392
29392
*Nset, Nset=Reference_Point-2_rot_29393
29393
*Nset, Nset=Internal_Selection-1_Velocity-1_fromEl
8625, 8626, 8627, 8628, 8629, 8630, 8631, 8632, 8633, 8634, 8635, 8636, 8637, 8638, 8639, 8640, 
8641, 8642, 8643, 8644, 8645, 8646, 8647, 8648, 8649, 8650, 8651, 8652, 8653, 8654, 8655, 8656, 
8657, 8658, 8659, 8660, 8661, 8662, 8663, 8664, 8665, 8666, 8667, 8668, 8669, 8670, 8671, 8672, 
8673, 8674, 8675, 8676, 8677, 8678, 8679, 8680, 8681, 8682, 8683, 8684, 8685, 8686, 8687, 8688, 
8689, 8690, 8691, 8692, 8693, 8694, 8695, 8696, 8697, 8698, 8699, 8700, 8701, 8702, 8703, 8704, 
8705, 8706, 8707, 8708, 8709, 8710, 8711, 8712, 8713, 8714, 8715, 8716, 8717, 8718, 8719, 8720, 
8721, 8722, 8723, 8724, 8725, 8726, 8727, 8728, 8729, 8730, 8731, 8732, 8733, 8734, 8735, 8736, 
8737, 8738, 8739, 8740, 8741, 8742, 8743, 8744, 8745, 8746, 8747, 8748, 8749, 8750, 8751, 8752, 
8753, 8754, 8755, 8756, 8757, 8758, 8759, 8760, 8761, 8762, 8763, 8764, 8765, 8766, 8767, 8768, 
8769, 8770, 8771, 8772, 8773, 8774, 8775, 8776, 8777, 8778, 8779, 8780, 8781, 8782, 8783, 8784, 
8785, 8786, 8787, 8788, 8789, 8790, 8791, 8792, 8793, 8794, 8795, 8796, 8797, 8798, 8799, 8800, 
8801, 8802, 8803, 8804, 8805, 8806, 8807, 8808, 8809, 8810, 8811, 8812, 8813, 8814, 8815, 8816, 
8817, 8818, 8819, 8820, 8821, 8822, 8823, 8824, 8825, 8826, 8827, 8828, 8829, 8830, 8831, 8832, 
8833, 8834, 8835, 8836, 8837, 8838, 8839, 8840, 8841, 8842, 8843, 8844, 8845, 8846, 8847, 8848, 
8849, 8850, 8851, 8852, 8853, 8854, 8855, 8856, 8857, 8858, 8859, 8860, 8861, 8862, 8863, 8864, 
8865, 8866, 8867, 8868, 8869, 8870, 8871, 8872, 8873, 8874, 8875, 8876, 8877, 8878, 8879, 8880, 
8881, 8882, 8883, 8884, 8885, 8886, 8887, 8888, 8889, 8890, 8891, 8892, 8893, 8894, 8895, 8896, 
8897, 8898, 8899, 8900, 8901, 8902, 8903, 8904, 8905, 8906, 8907, 8908, 8909, 8910, 8911, 8912, 
8913, 8914, 8915, 8916, 8917, 8918, 8919, 8920, 8921, 8922, 8923, 8924, 8925, 8926, 8927, 8928, 
8929, 8930, 8931, 8932, 8933, 8934, 8935, 8936, 8937, 8938, 8939, 8940, 8941, 8942, 8943, 8944, 
** ... 1278 like lines cut
**
** Element sets ++++++++++++++++++++++++++++++++++++++++++++
**
*Elset, Elset=Internal_Selection-1_Velocity-1
Compound-4
**
** Surfaces ++++++++++++++++++++++++++++++++++++++++++++++++
**
**
** Physical constants ++++++++++++++++++++++++++++++++++++++
**
**
** Materials +++++++++++++++++++++++++++++++++++++++++++++++
**
** Name: S185: Deactivated
*Material, Name=6061_Alloy
*Density
2.7E-09
*Elastic
69000, 0.33
*Expansion, Zero=20
2.4E-05
*Conductivity
170
*Specific heat
1300000000
*Material, Name=Concrete
*Density
2E-09
*Elastic
20000000, 0.3
**
** Sections ++++++++++++++++++++++++++++++++++++++++++++++++
**
*Shell section, Elset=Compound-4, Material=6061_Alloy, Offset=0
8
*Shell section, Elset=From_parts-1, Material=Concrete, Offset=0
1
**
** Pre-tension sections ++++++++++++++++++++++++++++++++++++
**
**
** Constraints +++++++++++++++++++++++++++++++++++++++++++++
**
*Rigid body, Nset=Internal_Selection-1_Rigid_Body-2, Ref node=29392, Rot node=29393
*Rigid body, Nset=Internal_Selection-1_Rigid_Body-1, Ref node=29390, Rot node=29391
**
** Surface interactions ++++++++++++++++++++++++++++++++++++
**
*Surface interaction, Name=RADIOSS_GENERAL
*Surface behavior, Pressure-overclosure=Hard
**
** Contact pairs +++++++++++++++++++++++++++++++++++++++++++
**
**
** Amplitudes ++++++++++++++++++++++++++++++++++++++++++++++
**
**
** Initial conditions ++++++++++++++++++++++++++++++++++++++
**
** Name: Velocity-1
*Initial conditions, Type=Velocity
Internal_Selection-1_Velocity-1_fromEl, 2, -9722
Reference_Point-1_ref_29390, 2, -9722
**
** Steps +++++++++++++++++++++++++++++++++++++++++++++++++++
**
**
** Step-1 ++++++++++++++++++++++++++++++++++++++++++++++++++
**
*Step, Inc=100
*Dynamic, Explicit=3
1E-07, 0.05, 1E-07, 1E+30
**
** Controls ++++++++++++++++++++++++++++++++++++++++++++++++
**
**
** Output frequency ++++++++++++++++++++++++++++++++++++++++
**
*Output, Frequency=1
**
** Boundary conditions +++++++++++++++++++++++++++++++++++++
**
*Boundary, op=New
** Name: Fixed-1
*Boundary
29392, 1, 3, 0
29393, 1, 3, 0
** Name: Displacement_Rotation-1
*Boundary
29390, 1, 1, 0
29390, 3, 3, 0
29391, 1, 1, 0
29391, 2, 2, 0
29391, 3, 3, 0
**
** Loads +++++++++++++++++++++++++++++++++++++++++++++++++++
**
*Cload, op=New
*Dload, op=New
**
** Defined fields ++++++++++++++++++++++++++++++++++++++++++
**
**
** History outputs +++++++++++++++++++++++++++++++++++++++++
**
**
** Field outputs +++++++++++++++++++++++++++++++++++++++++++
**
*Node file
RF, U, V
*El file
S, E, ENER, NOE
**
** End step ++++++++++++++++++++++++++++++++++++++++++++++++
**
*End step
